Circuit: * C:\Users\DELL\Desktop\LTSPICENETLIST\gpioinputbuffer23263377wpdpunr.asc

Ignoring BSIM parameter XL
Ignoring BSIM parameter XW
Ignoring BSIM parameter XL
Ignoring BSIM parameter XW
WARNING: Node N002 is floating.
WARNING: Node N021 is floating.
WARNING: Node N018 is floating.
WARNING: Node N020 is floating.

WARNING: Less than two connections to node N002.  This node is used by M13.
WARNING: Less than two connections to node N021.  This node is used by M14.
WARNING: Less than two connections to node N018.  This node is used by M19.
WARNING: Less than two connections to node N020.  This node is used by M20.
Warning: Pd = 0 is less than W.
Warning: Ps = 0 is less than W.
Warning: Pd = 0 is less than W.
Warning: Ps = 0 is less than W.
Warning: Pd = 0 is less than W.
Warning: Ps = 0 is less than W.
Warning: Pd = 0 is less than W.
Warning: Ps = 0 is less than W.
Direct Newton iteration for .op point succeeded.

Date: Tue Jul 07 16:35:43 2020
Total elapsed time: 1.063 seconds.

tnom = 27
temp = 27
method = modified trap
totiter = 10904
traniter = 10877
tranpoints = 3725
accept = 3132
rejected = 593
matrix size = 43
fillins = 8
solver = Normal
Matrix Compiler1: 2.36 KB object code size  1.3/0.8/[0.5]
Matrix Compiler2: 3.71 KB object code size  0.8/1.4/[0.7]

